Version 4
SHEET 1 2260 680
WIRE -16 -160 -64 -160
WIRE 336 -160 -16 -160
WIRE 512 -160 336 -160
WIRE 848 -160 512 -160
WIRE -32 -128 -64 -128
WIRE 320 -128 -32 -128
WIRE 816 -128 320 -128
WIRE 576 -96 -64 -96
WIRE 816 -96 576 -96
WIRE 592 -64 -64 -64
WIRE 816 -64 592 -64
WIRE 656 -32 -64 -32
WIRE 816 -32 656 -32
WIRE 416 0 -64 0
WIRE 816 0 416 0
WIRE 384 32 -64 32
WIRE 816 32 384 32
WIRE 240 64 64 64
WIRE 416 64 416 0
WIRE 416 64 240 64
WIRE 464 64 416 64
WIRE 512 64 512 -160
WIRE 576 64 576 -96
WIRE 576 64 560 64
WIRE 64 96 64 64
WIRE 240 96 240 64
WIRE -16 176 -16 -160
WIRE 16 176 -16 176
WIRE 320 176 320 -128
WIRE 320 176 288 176
WIRE 544 208 544 112
WIRE 656 208 656 -32
WIRE 656 208 544 208
WIRE -32 240 -32 -128
WIRE 16 240 -32 240
WIRE 336 240 336 -160
WIRE 336 240 288 240
WIRE 544 304 544 208
WIRE 64 352 64 320
WIRE 240 352 240 320
WIRE 240 352 64 352
WIRE 384 352 384 32
WIRE 384 352 240 352
WIRE 464 352 384 352
WIRE 592 352 592 -64
WIRE 592 352 560 352
WIRE 512 496 512 352
WIRE 512 496 -64 496
WIRE 848 496 848 -160
WIRE 848 496 512 496
FLAG -64 -128 VDD
IOPIN -64 -128 BiDir
FLAG -64 -160 VSS
IOPIN -64 -160 BiDir
FLAG -64 -96 !BL
IOPIN -64 -96 BiDir
FLAG -64 -64 BL
IOPIN -64 -64 BiDir
FLAG -64 -32 WL
IOPIN -64 -32 BiDir
FLAG -64 0 !Q
IOPIN -64 0 Out
FLAG -64 32 Q
IOPIN -64 32 Out
SYMBOL NOT_CELL 240 208 R90
SYMATTR InstName X1
SYMATTR SpiceLine L = {L}, Wn = {Wn}, Wp = {Wp}
SYMBOL NOT_CELL 64 208 R270
SYMATTR InstName X2
SYMATTR SpiceLine L = {L}, Wn = {Wn}, Wp = {Wp}
SYMBOL nmos4 464 304 M90
SYMATTR InstName M1
SYMATTR Value2 l={L} w={Wn} ad={Sn} as={Sn} pd={Pn} ps={Pn} m=1
SYMATTR Value mNMOS
SYMBOL nmos4 464 112 R270
SYMATTR InstName M2
SYMATTR Value2 l={L} w={Wn} ad={Sn} as={Sn} pd={Pn} ps={Pn} m=1
SYMATTR Value mNMOS
TEXT 1000 -40 Left 2 !.lib C:\\Users\\Alexandre\\Desktop\\UFSC_Active\\EEL7122\\EEL7122-Project\\MOS-models\\TSMC180nm.lib.txt
TEXT 1032 24 Left 2 ;L = {L}, Wn = {Wn}, Wp = {Wp}
TEXT 1024 72 Left 2 !;.param L 180n
TEXT 1024 104 Left 2 !;.param Wn 360n
TEXT 1024 136 Left 2 !;.param Wp 720n
TEXT 1320 104 Left 2 !.param Sn L*Wn
TEXT 1320 136 Left 2 !.param Pn 2*Wn
